    6
Nonperiodic system
C      -1.164646     0.019518     0.000000    13.391294
S       0.667567    -0.087145     0.000000    29.574133
H      -1.535425     0.522658    -0.895459     1.613410
H      -1.535425     0.522655     0.895461     1.613413
H      -1.530273    -1.009612    -0.000002     1.564497
H       0.907929     1.241507     0.000000     1.830205
  
Same information as above printed with atom number.
   1 C     -1.164646     0.019518     0.000000    13.391294
   2 S      0.667567    -0.087145     0.000000    29.574133
   3 H     -1.535425     0.522658    -0.895459     1.613410
   4 H     -1.535425     0.522655     0.895461     1.613413
   5 H     -1.530273    -1.009612    -0.000002     1.564497
   6 H      0.907929     1.241507     0.000000     1.830205
