    6
Nonperiodic system
C      -1.164646     0.019518     0.000000    30.719926
S       0.667567    -0.087145     0.000000    74.275318
H      -1.535425     0.522658    -0.895459     3.225901
H      -1.535425     0.522655     0.895461     3.225909
H      -1.530273    -1.009612    -0.000002     3.088098
H       0.907929     1.241507     0.000000     4.099150
  
Same information as above printed with atom number.
   1 C     -1.164646     0.019518     0.000000    30.719926
   2 S      0.667567    -0.087145     0.000000    74.275318
   3 H     -1.535425     0.522658    -0.895459     3.225901
   4 H     -1.535425     0.522655     0.895461     3.225909
   5 H     -1.530273    -1.009612    -0.000002     3.088098
   6 H      0.907929     1.241507     0.000000     4.099150
