    6
Nonperiodic system
C      -1.164646     0.019518     0.000000    84.074331
S       0.667567    -0.087145     0.000000   221.882809
H      -1.535425     0.522658    -0.895459     7.855492
H      -1.535425     0.522655     0.895461     7.855515
H      -1.530273    -1.009612    -0.000002     7.448044
H       0.907929     1.241507     0.000000    11.480902
  
Same information as above printed with atom number.
   1 C     -1.164646     0.019518     0.000000    84.074331
   2 S      0.667567    -0.087145     0.000000   221.882809
   3 H     -1.535425     0.522658    -0.895459     7.855492
   4 H     -1.535425     0.522655     0.895461     7.855515
   5 H     -1.530273    -1.009612    -0.000002     7.448044
   6 H      0.907929     1.241507     0.000000    11.480902
